<?xml version="1.0" encoding="UTF-8"?>

<!-- generated on 2023-09-05 16:11:26.882829 by randomTrips.py v1_18_0+0000-03ecfdea036
<configuration>
    <net-file value="luxembourg.net.xml"/>
    <route-file value="luxembourg.rou.xml"/>
    <end value="1500.0"/>
</configuration>
-->

<!-- generated on 2023-09-05 16:11:25 by Eclipse SUMO duarouter Version 1.18.0
<configuration xmlns:xsi="http://www.w3.org/2001/XMLSchema-instance" xsi:noNamespaceSchemaLocation="http://sumo.dlr.de/xsd/duarouterConfiguration.xsd">

    <input>
        <net-file value="luxembourg.net.xml"/>
        <route-files value="trips.trips.xml"/>
    </input>

    <output>
        <output-file value="luxembourg.rou.xml"/>
        <alternatives-output value="NUL"/>
    </output>

    <time>
        <begin value="0"/>
        <end value="1500.0"/>
    </time>

    <report>
        <no-warnings value="true"/>
        <ignore-errors value="true"/>
        <no-step-log value="true"/>
    </report>

</configuration>
-->

<routes xmlns:xsi="http://www.w3.org/2001/XMLSchema-instance" xsi:noNamespaceSchemaLocation="http://sumo.dlr.de/xsd/routes_file.xsd">
    <vehicle id="0" depart="0.00">
        <route edges="-34510#1 -34510#2 --35051#3 --35468#5 --35468#4 --35468#3 --35468#2 --35468#1 --35468#0 -35460#0 --34188#7 --34188#6"/>
    </vehicle>
    <vehicle id="1" depart="1.00">
        <route edges="--34923#2 -34923#2 --34720#1 --34720#0 -34829#1 -34829#2 --34435#27 --34435#26 --34435#25 --34435#24 --34435#23 --34435#22 --34435#21 --34435#20 --34435#19 --34435#18 --34435#17 --34435#16 --34435#15 --34435#14 --34435#13 --34435#12 --34435#11 --35448#8 --35448#7 --35448#6 --35448#5 --34253#6 --34253#5 --34253#4 --34253#3 --34253#2 -34523#0 -34523#1 -35274 -34305#0 -34305#1 -34419#0 -34419#1 -34419#2 -34419#3 -34419#4 -34419#5 -34419#6 --35172 --34352 --34189#1 --34189#0 -34189#0 --34913#2 --34688 --34766"/>
    </vehicle>
    <vehicle id="2" depart="2.00">
        <route edges="-34790#1 -35123#2 -35123#3 -34435#17 --34625#6 --34625#5 --34625#4 --34625#3 --34625#2 --34625#1 --34625#0 -34253#21 -34253#22 -34253#23 -34912#0 -34912#1 -34912#2 -34912#3 --34336#0 --34898#21 --34898#20 --34898#19 --34898#18 --34898#17 --34898#16 -34638#0 -34638#1"/>
    </vehicle>
    <vehicle id="3" depart="3.00">
        <route edges="-35190#3 -34514 -35299 -35012 --34959#1 --34959#0 --34118#3 --34118#2 --34118#1 --34118#0 --34906#2 -34181#6 -34181#7 -34461 --34741#2 --34741#1 --34741#0 -34299 --35127#6 --35127#5 --34618#1 --34618#0 --34524#3 -34330 -34112#0 -34327#0 --34327#2"/>
    </vehicle>
    <vehicle id="4" depart="4.00">
        <route edges="--35361#5 --35361#4 --35448#14 --35448#13 --35448#12 --35448#11 --35448#10 --35448#9 -34435#11 -34435#12 -34435#13 -34435#14 -34435#15 -34435#16 -34435#17 -34435#18 -34435#19 -34435#20 --34269 --34206 --35059 --34140 -35080 --34972#13 --34972#12 --34972#11 --34972#10 -34200 --34200"/>
    </vehicle>
    <vehicle id="5" depart="5.00">
        <route edges="--34745 --35366#3 --35366#2 --35366#1 --35366#0 -34168#9 -34168#10 -34168#11 --34191#5 --34191#4 --34191#3 --34191#2 --34191#1 --34191#0 -34433#3 -34433#0 -34722#0 -34722#1 -34722#2 -34722#3 -34737#3 -34737#4 -34737#5 -34737#6 -34737#7 -34737#8 -34737#9 -34737#10 -34737#11 -34737#12 -34737#13 -34737#14 -35361#0 -35361#1 -35361#2 -35361#3 -35361#4 -35361#5 -35361#6 -35361#7 -35361#8 -35361#9 -35361#10 -35361#11 -35361#12 --34253#4 --34253#3 --34253#2 --34253#1 --34253#0 --34735#1 --34735#0 --34313#15 --34313#14 --34313#13 --34313#12 --34313#11 --34313#10 --34313#9 --34313#8 --34313#7 --34313#6 --34313#5 --34313#4 --34313#3 -35262#0 -34229"/>
    </vehicle>
    <vehicle id="6" depart="6.00">
        <route edges="--34191#3 --34191#2 --34191#1 --34191#0 -34433#3 -34433#0 -34433#1 -35142#0 -35142#1 -35142#2 -34491#0 -34491#1 -35425#0 -35425#1 -35425#2 -35425#3 --34873#3 --34873#2 --34873#1 -34944#3 -34944#4 --34681#2 --34681#1 --34681#0"/>
    </vehicle>
    <vehicle id="7" depart="7.00">
        <route edges="-34529#1 --34529#1 --34529#0 -34294#3 -34294#0 -34294#1 -35473#0 -35473#1 --34372#3 --34372#2 --34372#1 --34302#4 --34302#3 --34302#2 -34302#2"/>
    </vehicle>
    <vehicle id="8" depart="8.00">
        <route edges="--34752#0 -34431#2 -34255 --34417#4 --34417#3 --34417#2 --34417#1 --34417#0 -35323#7 -35323#8 -35323#9 --34735#2 -34253#0 -34253#1 -34253#2 -34253#3 -34253#4 -34253#5 -34253#6 -35448#5 -35448#6 -35448#7 -35448#8 -34435#11 -34435#12 -34435#13 -34435#14 -34891 -34410#3 -34410#4"/>
    </vehicle>
    <vehicle id="9" depart="9.00">
        <route edges="-34963#1 -34963#2 -34474#1 -34474#2 --34405#0 -34435#27 -34829#3 -34829#4 -34829#0 -34829#1 -35253 -35148 -35410 -34528#0 -34528#1 -34619 -34151 -35282 -34885 -34544 -34295 -34177 -34486#1 -34740 -34845#1 -34886#0 -34886#1 -34886#2 --34853#2 --34853#1 --34853#0 -34446#1 -34446#2 -34931#1 -34931#2 -34931#3 -34931#4 --34132#4"/>
    </vehicle>
    <vehicle id="10" depart="10.00">
        <route edges="-34959#6 -35401#2 -35401#3 -35401#4 -35401#0 --34675 -34451#2 -34451#3 -34451#4 -34451#0 -34873#0 -34873#1 -34873#2 --34537#1 -35405#0 --34673#1 --34673#0 -34691#2"/>
    </vehicle>
    <vehicle id="11" depart="11.00">
        <route edges="--35100#1 --35100#0 --34316 --35025 --35085 -34313#9 -34313#10 -34313#11 -34313#12 -34313#13 -34313#14 -34313#15 -34735#0 -34735#1 -34253#0 -34253#1 -34523#0 --34523#0"/>
    </vehicle>
    <vehicle id="12" depart="12.00">
        <route edges="-35366#2 --35366#2 --35366#1 --35366#0 -34168#9 -34168#10 -34168#11 --34191#5 --34191#4 --34191#3 --34191#2 --34191#1 --34191#0 -34433#3 -34433#0 -34722#0 -34722#1 -34722#2 -34722#3 -34737#3 -34737#4 -34737#5 -34737#6 -34737#7 -34737#8 -34737#9 -34737#10 -34737#11 -34737#12 -34737#13 -34737#14 -35361#0 -35361#1 -35361#2 -35361#3 --35448#14 --35448#13 --35448#12 --35448#11 --35448#10 --35448#9 -34435#11 -34435#12 -34435#13 -34435#14 -34435#15 -34435#16 -34435#17 -34435#18 -34435#19 -34435#20 -34435#21 -34435#22 -34435#23 -34435#24 -34163#0 -34163#1 -34163#2 -34163#3 -34163#4 -34163#5 -35443#2 -35443#3 -35443#0 -34522#0 --34659#4 --34659#3 --34659#2 --35092#1"/>
    </vehicle>
    <vehicle id="13" depart="13.00">
        <route edges="--34348#0 --34942#8 --34942#7 --34942#6 --34942#5 --35151 -34696#1 --35285#1 --35285#0 -35013#2 -35013#3 -35013#4 -35013#0 -34892#0 -34892#1 -34737#9 -34737#10 -34737#11 -34737#12 -34737#13 -34737#14 -35361#0 -35361#1 -35361#2 -35361#3 --35448#14 --35448#13 --35448#12 --35448#11 --35448#10 --35448#9 -34435#11 -34435#12 -34435#13 -34435#14 -34435#15 -34435#16 -34435#17 -34435#18 -34435#19 -34435#20 -34435#21 -34435#22 -34435#23 -34435#24 -34163#0 -34163#1 -34163#2 -34163#3 -34163#4 -34163#5 -35443#2 -35423#0 --34359#2 --34359#1"/>
    </vehicle>
    <vehicle id="14" depart="14.00">
        <route edges="-35062#4 --35306#6 --35306#5 --35306#4 --35306#3 --35306#2 --35306#1 --35306#0 --34253#30 --34253#29 --34253#28 --34253#27 --34253#26 --34253#25 --34253#24 --34253#23 --34253#22 --34253#21 --34253#20 --34253#19 --34253#18 --34253#17 --34253#16 -35192#0 -35192#1 -35192#2 -35192#3 -34986 --34735#1 --34735#0 --34313#15 --34313#14 -34965#0 -34965#1 -34965#2 -34965#3 -34965#4 -34965#5 -34965#6 -34965#7 -34223#0 -35035#0 -34434#0"/>
    </vehicle>
    <vehicle id="15" depart="15.00">
        <route edges="-34961#12 --35063 --34886#0 -34845#0 --34740 -34486#2 -34486#0 --34177 --34295 --34544 --34885 --35282 --34151 --34619 --34528#1 --34528#0 --35410 --35148 --35253 -34829#2 --34435#27 --34435#26 --34435#25 --34435#24 --34435#23 --34435#22 --34435#21 --34435#20 --34435#19 --34435#18 --34435#17 --34435#16 --34435#15 --34435#14 --34435#13 --34435#12 --34435#11 --34435#10 --34435#9 --34435#8 --34435#7 --34435#6 --34435#5 --34435#4 --34435#3 --34435#2 --34435#1 --34435#0 -34118#0 -34118#1 -34118#2 -34118#3 -34959#0 -34959#1 -34959#2 -34959#3 -34959#4 --35374#1 --35374#0 -34390#2 -34390#3 -34390#0 -34403#0 -34403#1 -34403#2 --34784#0 -34784#0"/>
    </vehicle>
    <vehicle id="16" depart="16.00">
        <route edges="-34272#0 -34272#1 -34441 --34118#3 --34118#2 --34118#1 --34118#0 --34906#2 --34906#1 --34906#0 --34253#3 --34253#2 --34253#1 --34253#0 -34735#2 --35323#9 --35323#8 --35323#7 --35323#6 --35323#5 --35323#4 --35323#3 --35323#2 --35323#1 --35323#0 -34417#19 -35417#1 -35417#2"/>
    </vehicle>
    <vehicle id="17" depart="17.00">
        <route edges="--35231#0 --34205#3 --34205#2 --34205#1 --34205#0 -34634#6 -34634#7 -34634#8 -34634#9 --34253#38 --34253#37 --34253#36 --34253#35 --34253#34 --34253#33 --34253#32 --34253#31 --34253#30 --34253#29 --34253#28 --34253#27 --34253#26 --34253#25 --34253#24 --34253#23 --34253#22 --34253#21 --34253#20 --34253#19 --34253#18 --34253#17 --34253#16 -35192#0 -35192#1 -35192#2 -35192#3 -34986 --34735#1 --34735#0 --34313#15 --34313#14 --34313#13 --34313#12 --34313#11 --34313#10 --34313#9 --34313#8 --34313#7 --34313#6 --34313#5 --34313#4 --34313#3 -34313#3"/>
    </vehicle>
    <vehicle id="18" depart="18.00">
        <route edges="-35009#0 --35009#0 --34770#0 -35013#4 -35013#0 -34892#0 -34892#1 -34737#9 -34737#10 -34737#11 -34737#12 -34737#13 -34737#14 -35361#0 -35361#1 -35361#2 -35361#3 -35361#4 -35361#5 -35361#6 -35361#7 -35361#8 -35361#9 -35361#10 -34181#2 -34181#3 -34181#4 -34181#5 -34181#6 -34181#7 -34461 --34741#2 --34741#1 --34741#0 -35274 -34305#0 -34305#1 -34419#0 -34419#1 -34419#2 -34419#3 -34456#0"/>
    </vehicle>
    <vehicle id="19" depart="19.00">
        <route edges="-35101#4 -35171 -35208 --35208 --35171 --35101#4 --35101#3 --35101#2 --35101#1 --35101#0 --34253#48 --34253#47 --34253#46 --34253#45 --34253#44 --34253#43 --34253#42 --34253#41 --34253#40 --34253#39 --34253#38 --34253#37 --34253#36 --34253#35 --34253#34 --34253#33 --34253#32 --34253#31 --34253#30 --34253#29 --34253#28 --34253#27 --34253#26 --34253#25 --34253#24 --34253#23 --34253#22 --34253#21 --34253#20 --34253#19 --34253#18 --34253#17 --34253#16 --34253#15 --34253#14 --34253#13 --34253#12 --34253#11 --34253#10 --34253#9 --34253#8 --34253#7 --34253#6 --34253#5 --34253#4 --34253#3 --34253#2 -34523#0 -34523#1 -34299 --35127#6 -35473#1 -34372#4 -34372#5"/>
    </vehicle>
    <vehicle id="20" depart="20.00">
        <route edges="-34698 --35190#1 --34595 -35269#2 -34959#4 -34959#5 -34959#6 -35401#2 -35401#3 -35401#4 -35401#0 --34675 -34451#2 -34451#3 -34451#4 -34451#0 -34873#0 -34873#1 -34873#2 -34873#3 --35425#3 --35425#2 --35425#1 --35425#0 -34491#2 -34491#3 --35142#2 --35142#1 --35142#0 -34433#2 -34191#0 -34191#1 -34191#2 -34191#3 -34191#4 -34191#5 -34168#12 -34168#13 --34240#3"/>
    </vehicle>
    <vehicle id="21" depart="21.00">
        <route edges="--34779#0 --34775#0 --34408#1 --34408#0 --34417#3 --34417#2 --35252#1 --34566 --35128#3 -34293#6 -34293#7 -34293#8 -34293#9 -34293#10 --35192#2 --35192#1 --35192#0 -34253#16 -34253#17 -34253#18 -34253#19 -34253#20 -34253#21 -34253#22 -34253#23 -34253#24 -34253#25 -34253#26 -34253#27 -34253#28 -34253#29 -34253#30 -34253#31 -34253#32 -34253#33 -34253#34 -34253#35 -34253#36 -34253#37 -34253#38 -34253#39 -34253#40 -34253#41 -34253#42 --34886#7 --34886#6 --34886#5 --34886#4 --34886#3 --34886#2 --34886#1 -35063 -34961#0 -34961#1 -34961#2 -34961#3 --34961#3"/>
    </vehicle>
    <vehicle id="22" depart="22.00">
        <route edges="--34312#3 --34312#2 --34312#1 --34312#0 -34741#2 -34470#0 -34470#1 -34470#2 -34435#0 -34435#1 -34435#2 -34435#3 -34435#4 -34435#5 -34435#6 --35361#9 --35361#8 --35361#7 --35361#6 --35361#5 --35361#4 --35361#3 --35361#2 --35361#1 --35361#0 --34737#14 --34737#13 --34737#12 --34737#11 --34737#10 --34737#9 --34737#8 --34737#7 --34737#6 --34737#5 --34737#4 --34737#3 --34722#3 --34722#2 --34722#1 --34722#0 -34433#1 -34433#2 -34191#0 -34191#1 -34191#2 -34191#3 -34191#4 -34191#5 -34168#12 -35228#0 -35228#1 -34285#0 -34285#1 -34285#2 -34285#3 --34795#1"/>
    </vehicle>
    <vehicle id="23" depart="23.00">
        <route edges="--34372#2 -34372#2 -34372#3 --35473#1 -35127#6 --34299 -34741#0 -34741#1 -34741#2 -34470#0 -34470#1 -34470#2 -34118#0 -34118#1 -34118#2 -34118#3 -34959#0 -34959#1 -34959#2 -34959#3 -34959#4 -34959#5 -34959#6 -35401#2 -35401#3 -35401#4 -35401#0 --34675 -34451#2 -34451#3 -34451#4 -34451#0 -34873#0 -34944#3 -34944#4 --34936#2"/>
    </vehicle>
    <vehicle id="24" depart="24.00">
        <route edges="-34498 -35201#1 -35201#2 --34910 --35359#1 --35359#0 --35039 --35434 --34548#2 --34548#1 --34548#0 -35378#2 --35020#2 --35020#1 --35020#0 -35380#4 -35380#0 -35380#1 -35380#2 -34260#0 -34260#1 -34649#0 -34649#1 -34649#2 --34625#4 --34625#3 --34625#2 --34625#1 --34625#0 -34253#21 -34253#22 -34253#23 -34253#24 -34253#25 -34253#26 -34253#27 -34253#28 -34253#29 -34253#30 -34253#31 -34253#32 -34253#33 -34253#34 -34253#35 -34253#36 -34253#37 -34253#38 --34634#9 --34634#8 --34205#14 --34205#13 --34205#12 --34205#11 --35191"/>
    </vehicle>
    <vehicle id="25" depart="25.00">
        <route edges="--35203#4 -35203#4 -35203#5 -35203#6 -35203#7 -35203#8 -35203#9 -35203#10 -35203#11 -35203#12 -35203#13 -35203#14 -35203#15 -35178#2 --35221#7 --35221#6 --35221#5 --35221#4 --35221#3 --35221#2 --35221#1 --35077 -34293#9 -34293#10 -34273 -34605 -34504 -34679#0 -34679#1 -34679#2 --34253#7 --34253#6 --34253#5 --35361#12 --35361#11 --35361#10 --35361#9 --35361#8 --35361#7 --35361#6 --35361#5 --35361#4 --35361#3 --35361#2 --35361#1 --35361#0 --34737#14 --34737#13 --34737#12 --34737#11 --34737#10 --34737#9 --34737#8 --34737#7 --34737#6 --34737#5 --34737#4 --34737#3 --34722#3 --34722#2"/>
    </vehicle>
    <vehicle id="26" depart="26.00">
        <route edges="--34898#9 -34898#9 -34898#10 -34898#11 -34898#12 -34898#13 -34898#14 -34898#15 -34898#16 -34898#17 -34898#18 --34847 --34872 -35203#13 -35203#14 -35203#15 -35178#2 --35221#7 --35221#6 --35221#5 --35221#4 --35221#3 --35221#2 --35221#1 --35077 -34293#9 -34293#10 -34273 -34605 -34504 -34679#0 -34679#1 -34679#2 --34253#7 --34253#6 --34253#5 --34253#4 -34906#0 -34906#1 -34906#2 -34118#0 -34118#1 -34118#2 -34118#3 -34959#0 -34959#1 -34959#2 -34959#3 -34959#4 -34959#5 -34959#6 -35401#2 -35401#3 -35401#4 -35401#0 --34675 -34451#2 -34451#3 -34451#4 -34451#0 -34873#0 -34873#1 -34873#2 -34537#2 -34823#7 -35313"/>
    </vehicle>
    <vehicle id="27" depart="27.00">
        <route edges="-34524#8 -34524#9 --34299 -34741#0 -34741#1 -34741#2 -34470#0 -34470#1 -34470#2 -34435#0 -34435#1 -34435#2 -34435#3 -34435#4 -34435#5 -34435#6"/>
    </vehicle>
    <vehicle id="28" depart="28.00">
        <route edges="--34587#1 --34587#0 --35334#1 --35334#0 -34336#4 -34144#0 -34144#1 -34144#2 -34144#3 --34253#25 --34253#24 --34253#23 --34253#22 --34253#21 --34253#20 --34253#19 --34253#18 --34253#17 --34253#16 --34253#15 --34253#14 --34253#13 --34253#12 --34253#11 --34253#10 --34253#9 --34253#8 --34253#7 --34253#6 --34253#5 --34253#4 --34253#3 --34253#2 -34523#0 -34523#1 -34299 --34524#9 --34524#8 -34211#0 -34211#1 -35162#0 -35472 --34782#3 -34782#3"/>
    </vehicle>
    <vehicle id="29" depart="29.00">
        <route edges="--34552#0 --34634#2 --34634#1 --34416#2 --34416#1 --34416#0 --34253#32 --34253#31 --34253#30 --34253#29 --34253#28 --34253#27 --34253#26 --34253#25 --35396#1 --35396#0 --34336#1 --34336#0 --34898#21 -35468#0 -35468#1 --35203#14 --35203#13 --35203#12 --35203#11 --35203#10 --35203#9 --35203#8 --35203#7 --35203#6 --35203#5 -34916#0 --35246"/>
    </vehicle>
    <vehicle id="30" depart="30.00">
        <route edges="-35456#5 --35456#5 --35456#4 --35456#3 --35456#2 -35127#1 -35127#2 -35127#3 -35127#4 -35127#5 -35127#6 --34299 -34741#0 -34741#1 -34741#2 -34470#0 -34470#1 -34470#2 -34435#0 -34435#1 -34435#2 -34435#3 -34435#4 -34435#5 -34435#6 -34435#7 -34435#8 -34435#9 -34435#10 -34435#11 -34435#12 -34435#13 -34435#14 -34435#15 -34435#16 -34435#17 -34435#18 -34435#19 -34435#20 -34435#21 -34435#22 -34522#8"/>
    </vehicle>
    <vehicle id="31" depart="31.00">
        <route edges="-34313#14 -34313#15 -34735#0 -34735#1 -34253#0 -34253#1 -34253#2 -34253#3 -34253#4 -34253#5 -34253#6 -35448#5 -35448#6 -35448#7 -35448#8 -34435#11 -34435#12 -34435#13 -34435#14 -34435#15 -34435#16 -34435#17 -34435#18 -34435#19 -34435#20 -34435#21 -34435#22 -34435#23 -34435#24 -34163#0 -34163#1 -34163#2 -34163#3 -34163#4 -34163#5 -35443#2 -35443#3 -35443#0 -34522#0 --34659#4 -34659#4"/>
    </vehicle>
    <vehicle id="32" depart="32.00">
        <route edges="-35049#0 -35049#1 --34253#54 --34253#53 --34253#52 --34253#51 --34253#50 --34253#49 --34253#48 --34253#47 --34253#46 --34253#45 -34958 -34664 -34120 -35388 -34704 -34898#0 -34898#1 -34898#2 -34898#3 -34898#4 -34898#5"/>
    </vehicle>
    <vehicle id="33" depart="33.00">
        <route edges="--34784#0 -34784#0 --34403#2 --34403#1 --34403#0 -34390#1 -35374#0 -35374#1 --34959#4 --34959#3 --34959#2 --34959#1 --34959#0 --34118#3 --34118#2 --34118#1 --34118#0 --34906#2 --34906#1 --34906#0 -34253#4 -34253#5 -34253#6 -34253#7 -34253#8 -34253#9 -34253#10 -34253#11 -34253#12 -34253#13 -34253#14 -34253#15 -34253#16 -34253#17 -34253#18 -34253#19 -34253#20 -34253#21 -34253#22 -34253#23 -34253#24 -34253#25 -34253#26 -34253#27 -34253#28 -34253#29 -34253#30 -34253#31 -34253#32 -34253#33 -34253#34 -34253#35 -34253#36 -34253#37 -34253#38 --34634#9 --34634#8 --34205#14 --34205#13 --34821#0 --34205#2"/>
    </vehicle>
    <vehicle id="34" depart="34.00">
        <route edges="--35017#7 --35017#6 --34748#1 --34748#0 -34942#4 --35151 -34696#1 --35285#1 --35285#0 -35013#2 -35013#3 -35013#4 -35013#0 -34892#0 -34892#1 --34737#8 --34976 --35106 -35205#0 --35359#4 --35359#3 --35359#2 -34910 -35201#0 -35201#1 -35201#2 --34910"/>
    </vehicle>
    <vehicle id="35" depart="35.00">
        <route edges="--34724#1 -34724#1 -34648 -34965#17 -34965#18 -34118#1 -34118#2 -34118#3 -34959#0 -34959#1 -34959#2 -34959#3 -34959#4 -34959#5 -34959#6 -35401#2 -35401#3 -35401#4 -35401#0 --34675 -34451#2 -34451#3 -34451#4 -34451#0 -34873#0 --34944#2 --34944#1 --34915#1 --34915#0 --35017#3 -35333"/>
    </vehicle>
    <vehicle id="36" depart="36.00">
        <route edges="-35144#1 -35144#2 --34704 --35388 --34120 --34664 --34958 --34253#44 --34253#43 --34253#42 --34253#41 --34253#40 --34253#39 --34253#38 --34253#37 --34253#36 --34253#35 --34253#34 --34253#33 --34253#32 --34253#31 --34253#30 --34253#29 --34253#28 --34253#27 --34253#26 --34253#25 --34253#24 --34253#23 --34253#22 --34253#21 --34253#20 --34253#19 --34253#18 --34253#17 --34253#16 --34253#15 --34253#14 --34253#13 --34253#12 --34253#11 --34253#10 --34253#9 --34253#8 --34253#7 --34253#6 --34253#5 --34253#4 -34906#0 -34906#1 -34906#2 -34118#0 -34118#1 -34118#2 -34118#3 -34959#0 -34959#1 -34959#2 -34959#3 -34959#4 -34959#5 -34959#6 -35401#2 -35401#3 -35401#4 -35401#0 --34675 -34451#2 -34451#3 -34451#4 -34451#0 -34873#0 --34944#2 --34944#1 --34915#1 -35017#0 -35017#1 --35017#11 --35017#10 --35017#9"/>
    </vehicle>
    <vehicle id="37" depart="37.00">
        <route edges="-34551 --35456#4 --35456#3 --35456#2 -35127#1 -35127#2 -35127#3 -35127#4 -35127#5 -35127#6 --34299 --34523#1 --34523#0 -34253#2 -34253#3 -34253#4 -34253#5 -34253#6 -34253#7 -34253#8 -34253#9 -34253#10 -34253#11 -34253#12 -34253#13 -35411 -34934 -35054 --34217 --34883 -35221#3 -35221#4 -35221#5 -35221#6 -35221#7 -35178#0 --34898#23 --34898#22 --34898#21 --34898#20 --34898#19 --34898#18 --34898#17 --34898#16 --34898#15 --35306#11"/>
    </vehicle>
    <vehicle id="38" depart="38.00">
        <route edges="-35258#0 -35258#1 -35258#2 -35258#3 -35258#4 -34898#9 -34898#10 -34898#11 -34898#12 -34898#13 -34898#14 -34898#15 -34898#16 -34898#17 -34898#18 --34847 --34872 -35203#13 -35203#14 -35203#15 -35178#2 --35221#7 --35221#6 --35221#5 --35221#4 --35221#3 --35221#2 --35221#1 --35077 -34293#9 -34293#10 -34273 -34605 -34504 -34679#0 -34679#1 -34679#2 --34253#7 --34253#6 --34253#5 --34253#4 -34906#0 -34906#1 -34906#2 -34118#0 -34118#1 -34118#2"/>
    </vehicle>
    <vehicle id="39" depart="39.00">
        <route edges="--34898#2 -34898#2 -34898#3 -34898#4 -34898#5 -34898#6 -34898#7 -34898#8 -34898#9 -34898#10 -34898#11 -34898#12 -34898#13 -34898#14 -34898#15 -34898#16 -34898#17 -34898#18 --34847 --34872 -35203#13 -35203#14 -35203#15 -35178#2 --35221#7 --35221#6 --35221#5 --35221#4 --35221#3 --35221#2 --35221#1 --35077 -34293#9 -34293#10 -34273 -34605 -34504 -34679#0 -34679#1 -34679#2 --34253#7 --34253#6 --34253#5 --35361#12 --35361#11 --35361#10 --35361#9 --35361#8 --35361#7 --35361#6 --35361#5 --35361#4 --35361#3 --35361#2 --35361#1 --35361#0 --34381 --34174#5 --34863#1 --34848#5"/>
    </vehicle>
    <vehicle id="40" depart="40.00">
        <route edges="-34323#13 -34323#14 -34733 -35371#4 -35371#5 -35371#6 -35371#7 -35371#0 -35371#1 -34145 -34800#2 -34768 -35368#1 -34293#0 -34811 -34939#1 -34939#2 -35203#0 -35203#1 -35203#2 -35203#3 -35203#4 -35203#5 -35203#6 -35203#7 -35203#8 -35203#9 -35203#10 -35203#11 -35203#12 -34872 -34847 --34898#18"/>
    </vehicle>
    <vehicle id="41" depart="41.00">
        <route edges="-34376 --34392#2 -34332#0 -34332#1 -34757#0 -34475#0 -34475#1 -34377#3 -34377#0 -34377#1 -34799 -35119 --34919#0 --34831 -34778#3 -34778#4 --34937 -34375#2 --35141#4 --35141#3 -34639 -34323#6 -34323#7 -34472#0 -34472#1 -35214#1"/>
    </vehicle>
    <vehicle id="42" depart="42.00">
        <route edges="--35304#9 --35304#8 --35304#7 --35304#6 --35304#5 --35304#4 --35304#3 --35304#2 --35304#1 --35304#0 --34336#6 --34336#5 -34144#0 -34144#1 -34144#2 -34144#3 --34253#25 --34253#24 --34253#23 --34253#22 --34253#21 -34625#0 -34625#1 -34625#2 -34625#3 -34625#4 -34625#5 -34625#6 --34435#17 --34435#16 --34435#15 --34435#14 --34435#13 --34435#12 --34435#11 -35448#9 -35448#10 -35448#11 -35448#12 -35448#13 -35448#14 --35361#3 --35361#2 --34425#3 --34425#2 --34425#1 --34425#0 --34985#4 --34985#3 -34750#0 -34750#1 --34750#1"/>
    </vehicle>
    <vehicle id="43" depart="43.00">
        <route edges="-35472 --35472 --35162#0 --34211#1 --34211#0 -34524#8 -34524#9 --34299 -34741#0 -34741#1 -34741#2 -34470#0 -34470#1 -34470#2 -34435#0 -34435#1 -34435#2 -34435#3 -34435#4 -34435#5 -34435#6 --35361#9 --35361#8 --35361#7 --35361#6 --35361#5 --35361#4 --35361#3 --35361#2 --35361#1 --35361#0 --34737#14 --34737#13 --34737#12 --34737#11 --34737#10 --34737#9 --34737#8 --34737#7 --34737#6 --34737#5 --34737#4 --34737#3 --34722#3 --34722#2 --34722#1 --34722#0 -34433#1 -34433#2 -34433#3 --34157#2 -34240#0"/>
    </vehicle>
    <vehicle id="44" depart="44.00">
        <route edges="--34339#2 -35068#3 -34848#0 -34848#1 -34848#2 -34425#1 --34412#2 --34412#1 --34412#0 --34737#14 --34737#13 --34737#12 --34737#11 --34737#10 --34737#9 --34737#8 --34737#7 --34737#6 --34737#5 --34737#4 --34737#3 --34722#3 --34722#2 --34722#1 --34722#0 -34433#1 -34433#2 -34191#0 -34191#1 -34191#2 -34191#3 -34191#4 -34191#5 --34168#11 --34142#6 -34197#0 -34700 --34245#1"/>
    </vehicle>
    <vehicle id="45" depart="45.00">
        <route edges="--34402 --34156#0 -34313#11 -34313#12 -34313#13 -34313#14 -34313#15 -34735#0 -34735#1 -34253#0 -34253#1 -34253#2 -34253#3 -34253#4 --35361#12 --35361#11 --35361#10 --35361#9 --35361#8 --35361#7 --35361#6 --35361#5 --35361#4 --35361#3 --35361#2 --35361#1 --35361#0 --34737#14 --34737#13 --34737#12 --34737#11 --34737#10 --34737#9 --34737#8 --34976 --35106 -35205#0 -35205#1 -34841 -35377 -34485#0"/>
    </vehicle>
    <vehicle id="46" depart="46.00">
        <route edges="-34930 -34621#3 --34414#1 --34414#0 --35263#0 -34313#13 -34313#14 -34313#15 -34735#0 -34735#1 -34253#0 -34253#1 -34253#2 -34253#3 -34253#4 --35361#12 --35361#11 --35361#10 --35361#9 --35361#8 --35361#7 --35361#6 --35361#5 --35361#4 --35361#3 --35361#2 --35361#1 --35361#0 --34737#14 --34737#13 --34737#12 --34737#11 --34737#10 --35374#8 --35374#7"/>
    </vehicle>
    <vehicle id="47" depart="47.00">
        <route edges="--34268 -34187#1 -34187#2 -34187#3 --34205#1 --34205#0 -34634#6 -34634#7 -34634#8 -34634#9 -34253#39 -34253#40 -34253#41 -34253#42 -34253#43 -34253#44 -34958 -34664 -34120 -35388 -34704 --35144#2 -35114 -34977#2 -34314#0 -34314#1 --34513#3 -35476#0 -35476#1 --35258#0"/>
    </vehicle>
    <vehicle id="48" depart="48.00">
        <route edges="-35469#7 -35469#8 -35469#9 --34417#6 --34417#5 --34417#4 --34417#3 --34417#2 --35252#1 --34566 --35128#3 -34293#6 -34293#7 -34293#8 -34293#9 -34293#10 --35192#2 --35192#1 --35192#0 -34253#16 -34253#17 -34253#18 -34253#19 -34253#20 -34625#0 --34464 -34265 -35296#2 -35296#3 -35296#4 -34261"/>
    </vehicle>
    <vehicle id="49" depart="49.00">
        <route edges="-35409 -35347#2 -34191#4 -34191#5 --34168#11 --34168#10 --34168#9 --34168#8 --35105#2 -35105#2"/>
    </vehicle>
    <vehicle id="50" depart="50.00">
        <route edges="--34156#2 -35110 -34313#10 -34313#11 -34313#12 -34313#13 -34313#14 -34313#15 -34735#0 -34735#1 -34253#0 -34253#1 -34253#2 -34253#3 -34253#4 -34253#5 -34253#6 -34253#7 -34253#8 -34253#9 -34253#10 -34253#11 -34253#12 -34253#13 -34253#14 -34253#15 -34253#16 -34253#17 -34253#18 -34253#19 -34253#20 -34253#21 -34253#22 -34253#23 -34253#24 -34253#25 -34253#26 -34253#27 -34253#28 -34253#29 -34253#30 -34253#31 -34253#32 -34253#33 -34253#34 -34253#35 -34253#36 -34253#37 -34253#38 -34253#39 -34253#40 -34253#41 -34253#42 -34253#43 -34253#44 -34253#45 -34807#0 -35280#0 -34758#0 -34758#1"/>
    </vehicle>
    <vehicle id="51" depart="51.00">
        <route edges="-34635#1 --34670#3 --34670#2 --34670#1 --34670#0 -34417#13 -34417#14 --34803 -35368#6 -35368#7 -35368#0 -35368#1 -34293#0 -34293#1 -34293#2 -34293#3 -34293#4 -34293#5 -34293#6 -34293#7 -34293#8 -34293#9 -34293#10 --35192#2 --35192#1 --35192#0 -34253#16 -34253#17 -34253#18 -34253#19 -34253#20 -34625#0 -34625#1 -34625#2 -34625#3 -34625#4 -34625#5 -34625#6 -34435#18 -34435#19 -34435#20 -34435#21 -34435#22 -34435#23 -34435#24 -34435#25 -34435#26 -34435#27 -34829#3 -34829#4 -34829#0 -34720#0 -34720#1 -34720#2 -34720#3 -35462#2 --34284#8 -34284#8"/>
    </vehicle>
    <vehicle id="52" depart="52.00">
        <route edges="--34898#8 -34898#8 -34898#9 -34898#10 -34898#11 -34898#12 -34898#13 -34898#14 -34898#15 -34898#16 -34898#17 -34898#18 --34847 --34872 -35203#13 -35203#14 -35203#15 -35178#2 --35221#7 --35221#6 --35221#5 --35221#4 --35221#3 --35221#2 --35221#1 --35077 -34293#9 -34293#10 -35192#3 -34986 -34253#0 -34253#1 -34523#0 -34523#1 -34299 --35127#6 --35127#5 --34618#1 --34618#0 --34524#3 --34524#2 -34524#2"/>
    </vehicle>
    <vehicle id="53" depart="53.00">
        <route edges="--34408#2 --34408#1 --34408#0 --34417#3 --34417#2 --34417#1 --34417#0 -35323#7 -35323#8 -35323#9 --34735#2 -34253#0 -34253#1 -34253#2 -34253#3 -34906#0 -34906#1 -34906#2 -34118#0 -34118#1 -34118#2 -34118#3 -34959#0 -34959#1 -34959#2 -34959#3 -34959#4 -34959#5 -34959#6 -35401#2 -35401#3 -35401#4 -35401#0 --34675 -34451#2 -34451#3 -34451#4 -34451#0 -34873#0 -34873#1 -34873#2 -34873#3 -35425#4 -35425#5 -35425#6 --35425#6"/>
    </vehicle>
    <vehicle id="54" depart="54.00">
        <route edges="--35466#1 -35466#1 -35390#1 -35390#2 --34417#9 --34417#8 --34417#7 --34417#6 --34417#5 --34417#4 --34417#3 --34417#2 --34417#1 --34417#0 -35323#7 -35323#8 -35323#9 --34735#2 -34253#0 -34253#1 -34253#2 -34253#3 -34253#4 --35361#12 --35361#11 --35361#10 --35361#9 --35361#8 --35361#7 --35361#6 --35361#5 --35361#4 --35361#3 -35361#3"/>
    </vehicle>
    <vehicle id="55" depart="55.00">
        <route edges="-35142#2 -34491#0 --34919#2 --34919#1 --34919#0 --34831 -34778#3 -34778#4 --34937 -34375#2 --35141#4 --35141#3 --35141#2 --35141#1 --35141#0 -34737#4 -34737#5 -34737#6 -34737#7 -34737#8 -34737#9 -34737#10 -34737#11 -34737#12 -34737#13 -34737#14 -35361#0 -35361#1 -35361#2 -35361#3 -35361#4 -35361#5 -35361#6 -35361#7 -35361#8 -35361#9 -35361#10 -35361#11 -35361#12 -34253#5 -34253#6 -34253#7 -34253#8 -34253#9 -34253#10 -34253#11 -34253#12 -34253#13 -35411 -34934 -35054 --34217 --34883 -35221#3 -35221#4 -35221#5 -35221#6 -35221#7 -35178#0 --34898#23 --34898#22 --34898#21"/>
    </vehicle>
    <vehicle id="56" depart="56.00">
        <route edges="-34205#5 --34205#5 --34205#4 --34205#3 --34205#2 --34205#1 --34205#0 -34634#6 -34634#7 -34634#8 -34634#9 -34253#39 -34253#40 -34253#41 -34253#42 --34886#7 --34886#6 --34886#5 --34886#4 --34886#3 --34886#2 --34886#1 -35063 --34961#12 --34961#11 --34613#1 --34613#0"/>
    </vehicle>
    <vehicle id="57" depart="57.00">
        <route edges="-35251#0 -35251#1 -35251#2 -35251#3 -34473#2 --34162#0 --34435#25 --34435#24 --34435#23 --34435#22 --34435#21 --34435#20 --34435#19 --34435#18 --34435#17 --34435#16 --34435#15 --34435#14 --34435#13 --34435#12 --34435#11 -35448#9 -35448#10 -35448#11 -35448#12 -35448#13 -35448#14 --35361#3 --35361#2 --35361#1 --35361#0 --34737#14 --34737#13 --34737#12 --34737#11 --34737#10 --34737#9 --34737#8 --34737#7 --34737#6 --34737#5 --34737#4 -35141#0 -35141#1"/>
    </vehicle>
    <vehicle id="58" depart="58.00">
        <route edges="--34969#3 -35261#0 -34787 -35031#3 -34444#1 --34367#2 --34367#1 --34367#0 --34417#10 --34417#9 --34417#8 --34417#7 --34417#6 --34417#5 --34417#4 --34417#3 --34417#2 --35252#1 --34566 --35128#3 -34293#6 -34293#7 -34293#8 -34293#9 -34293#10 --35192#2 --35192#1 --35192#0 -34253#16 -34253#17 -34253#18 -34253#19 -34253#20 -34625#0 --34464 -34265 --35296#1 --35296#0 --34522#2 -34522#2"/>
    </vehicle>
    <vehicle id="59" depart="59.00">
        <route edges="-34431#2 -34255 --34417#4 --34417#3 --34417#2 --34417#1 --34417#0 -35323#7 -35323#8 -35323#9 --34735#2 -34253#0 -34253#1 -34523#0 -34523#1 -34741#0 -34741#1 -34312#0 --34517#1"/>
    </vehicle>
    <vehicle id="60" depart="60.00">
        <route edges="-34856 --34435#15 --34435#14 --34435#13 --34198#6 --34198#5 --34198#4 -34288#0 -34288#1 -34288#2"/>
    </vehicle>
    <vehicle id="61" depart="61.00">
        <route edges="-34898#21 -34898#22 -34898#23 -35178#1 -35178#2 --35221#7 --35221#6 --35221#5 --35221#4 --35221#3 --35221#2 --35221#1 --35077 -34293#9 -34293#10 -34273 -34605 -34504 -34679#0 -34679#1 -34679#2 --34253#7 -35448#5 -35448#6 -35448#7 -34267"/>
    </vehicle>
    <vehicle id="62" depart="62.00">