<?xml version="1.0" encoding="UTF-8"?>
<configuration>
    <input>
        <net-file value="luxembourg.net.xml"/>
    </input>
    <time>
        <begin value="0"/>
        <end value="3600"/>
    </time>
    <route>
        <randomTrips route-file="luxembourg.rou.xml" trips="10" />
    </route>
</configuration>

