<routes xmlns:xsi="http://www.w3.org/2001/XMLSchema-instance" xsi:noNamespaceSchemaLocation="http://sumo.dlr.de/xsd/routes_file.xsd">
    <vehicle id="0" depart="0.00">
        <route edges="-34572#4 --35375 --34417#16 --34417#15 --34803 -35368#6 -35368#7 -35368#0 -35368#1 -34293#0 -34293#1 -34293#2 -34293#3 -34293#4 -34293#5 -34293#6 -34293#7 -34293#8 -34293#9 -34293#10 --35192#2 --35192#1 --35192#0 -34253#16 -34253#17 -34253#18 -34253#19 -34253#20 -34253#21 -34253#22 -34253#23 -34253#24 -34253#25 -34253#26 -34253#27 -34253#28 -34253#29 -34253#30 -34253#31 -34253#32 -34253#33 -34253#34 -34253#35 -34253#36 -34253#37 -34253#38 --34634#9 --34634#8 --34634#7 --34634#6 -34205#0 -34205#1 -34205#2 -34205#3 --34205#3"/>
    </vehicle>
</routes>