<?xml version="1.0" encoding="UTF-8"?>

<!-- generated on 2023-09-05 16:11:24.274537 by randomTrips.py v1_18_0+0000-03ecfdea036
<configuration>
    <net-file value="luxembourg.net.xml"/>
    <route-file value="luxembourg.rou.xml"/>
    <end value="1500.0"/>
</configuration>
-->

<routes xmlns:xsi="http://www.w3.org/2001/XMLSchema-instance" xsi:noNamespaceSchemaLocation="http://sumo.dlr.de/xsd/routes_file.xsd">
    <trip id="0" depart="0.00" from="-34510#1" to="--34188#6"/>
    <trip id="1" depart="1.00" from="--34923#2" to="--34766"/>
    <trip id="2" depart="2.00" from="-34790#1" to="-34638#1"/>
    <trip id="3" depart="3.00" from="-35190#3" to="--34327#2"/>
    <trip id="4" depart="4.00" from="--35361#5" to="--34200"/>
    <trip id="5" depart="5.00" from="--34745" to="-34229"/>
    <trip id="6" depart="6.00" from="--34191#3" to="--34681#0"/>
    <trip id="7" depart="7.00" from="-34529#1" to="-34302#2"/>
    <trip id="8" depart="8.00" from="--34752#0" to="-34410#4"/>
    <trip id="9" depart="9.00" from="-34963#1" to="--34132#4"/>
    <trip id="10" depart="10.00" from="-34959#6" to="-34691#2"/>
    <trip id="11" depart="11.00" from="--35100#1" to="--34523#0"/>
    <trip id="12" depart="12.00" from="-35366#2" to="--35092#1"/>
    <trip id="13" depart="13.00" from="--34348#0" to="--34359#1"/>
    <trip id="14" depart="14.00" from="-35062#4" to="-34434#0"/>
    <trip id="15" depart="15.00" from="-34961#12" to="-34784#0"/>
    <trip id="16" depart="16.00" from="-34272#0" to="-35417#2"/>
    <trip id="17" depart="17.00" from="--35231#0" to="-34313#3"/>
    <trip id="18" depart="18.00" from="-35009#0" to="-34456#0"/>
    <trip id="19" depart="19.00" from="-35101#4" to="-34372#5"/>
    <trip id="20" depart="20.00" from="-34698" to="--34240#3"/>
    <trip id="21" depart="21.00" from="--34779#0" to="--34961#3"/>
    <trip id="22" depart="22.00" from="--34312#3" to="--34795#1"/>
    <trip id="23" depart="23.00" from="--34372#2" to="--34936#2"/>
    <trip id="24" depart="24.00" from="-34498" to="--35191"/>
    <trip id="25" depart="25.00" from="--35203#4" to="--34722#2"/>
    <trip id="26" depart="26.00" from="--34898#9" to="-35313"/>
    <trip id="27" depart="27.00" from="-34524#8" to="-34435#6"/>
    <trip id="28" depart="28.00" from="--34587#1" to="-34782#3"/>
    <trip id="29" depart="29.00" from="--34552#0" to="--35246"/>
    <trip id="30" depart="30.00" from="-35456#5" to="-34522#8"/>
    <trip id="31" depart="31.00" from="-34313#14" to="-34659#4"/>
    <trip id="32" depart="32.00" from="-35049#0" to="-34898#5"/>
    <trip id="33" depart="33.00" from="--34784#0" to="--34205#2"/>
    <trip id="34" depart="34.00" from="--35017#7" to="--34910"/>
    <trip id="35" depart="35.00" from="--34724#1" to="-35333"/>
    <trip id="36" depart="36.00" from="-35144#1" to="--35017#9"/>
    <trip id="37" depart="37.00" from="-34551" to="--35306#11"/>
    <trip id="38" depart="38.00" from="-35258#0" to="-34118#2"/>
    <trip id="39" depart="39.00" from="--34898#2" to="--34848#5"/>
    <trip id="40" depart="40.00" from="-34323#13" to="--34898#18"/>
    <trip id="41" depart="41.00" from="-34376" to="-35214#1"/>
    <trip id="42" depart="42.00" from="--35304#9" to="--34750#1"/>
    <trip id="43" depart="43.00" from="-35472" to="-34240#0"/>
    <trip id="44" depart="44.00" from="--34339#2" to="--34245#1"/>
    <trip id="45" depart="45.00" from="--34402" to="-34485#0"/>
    <trip id="46" depart="46.00" from="-34930" to="--35374#7"/>
    <trip id="47" depart="47.00" from="--34268" to="--35258#0"/>
    <trip id="48" depart="48.00" from="-35469#7" to="-34261"/>
    <trip id="49" depart="49.00" from="-35409" to="-35105#2"/>
    <trip id="50" depart="50.00" from="--34156#2" to="-34758#1"/>
    <trip id="51" depart="51.00" from="-34635#1" to="-34284#8"/>
    <trip id="52" depart="52.00" from="--34898#8" to="-34524#2"/>
    <trip id="53" depart="53.00" from="--34408#2" to="--35425#6"/>
    <trip id="54" depart="54.00" from="--35466#1" to="-35361#3"/>
    <trip id="55" depart="55.00" from="-35142#2" to="--34898#21"/>
    <trip id="56" depart="56.00" from="-34205#5" to="--34613#0"/>
    <trip id="57" depart="57.00" from="-35251#0" to="-35141#1"/>
    <trip id="58" depart="58.00" from="--34969#3" to="-34522#2"/>
    <trip id="59" depart="59.00" from="-34431#2" to="--34517#1"/>
    <trip id="60" depart="60.00" from="-34856" to="-34288#2"/>
    <trip id="61" depart="61.00" from="-34898#21" to="-34267"/>
    <trip id="62" depart="62.00" from="--34112#0" to="--35053#0"/>
    <trip id="63" depart="63.00" from="--34174#4" to="-35304#6"/>
    <trip id="64" depart="64.00" from="-35154#2" to="-35024#0"/>
    <trip id="65" depart="65.00" from="--34989" to="--34253#52"/>
    <trip id="66" depart="66.00" from="-35153#0" to="-35347#0"/>
    <trip id="67" depart="67.00" from="--34326" to="-34188#0"/>
    <trip id="68" depart="68.00" from="--34284#7" to="-34861#2"/>
    <trip id="69" depart="69.00" from="-34864" to="--34435#12"/>
    <trip id="70" depart="70.00" from="-34153#3" to="-34312#6"/>
    <trip id="71" depart="71.00" from="--34898#20" to="-35144#2"/>
    <trip id="72" depart="72.00" from="--35362#1" to="--34728#1"/>
    <trip id="73" depart="73.00" from="-34279#3" to="-34784#1"/>
    <trip id="74" depart="74.00" from="--34686#0" to="--35012"/>
    <trip id="75" depart="75.00" from="-35469#2" to="-34556#0"/>
    <trip id="76" depart="76.00" from="--35425#0" to="-34253#24"/>
    <trip id="77" depart="77.00" from="--34419#5" to="--34771#0"/>
    <trip id="78" depart="78.00" from="--35092#1" to="-34409#0"/>
    <trip id="79" depart="79.00" from="--34786#3" to="--34753"/>
    <trip id="80" depart="80.00" from="--34287#0" to="-34501#0"/>
    <trip id="81" depart="81.00" from="--34782#4" to="-35233#0"/>
    <trip id="82" depart="82.00" from="-35098#0" to="--34286"/>
    <trip id="83" depart="83.00" from="--34813#5" to="-34621#3"/>
    <trip id="84" depart="84.00" from="--34737#10" to="--34435#8"/>
    <trip id="85" depart="85.00" from="-35312#1" to="-34356"/>
    <trip id="86" depart="86.00" from="-34144#0" to="-34919#1"/>
    <trip id="87" depart="87.00" from="-34961#3" to="--34659#4"/>
    <trip id="88" depart="88.00" from="--34360#0" to="--35405#4"/>
    <trip id="89" depart="89.00" from="--35364#2" to="-34142#6"/>
    <trip id="90" depart="90.00" from="-34770#2" to="-34631"/>
    <trip id="91" depart="91.00" from="-35448#10" to="--34367#0"/>
    <trip id="92" depart="92.00" from="--35309#0" to="--35101#1"/>
    <trip id="93" depart="93.00" from="-35101#4" to="--34851#6"/>
    <trip id="94" depart="94.00" from="--34659#1" to="--35466#0"/>
    <trip id="95" depart="95.00" from="--35361#4" to="--34941#0"/>
    <trip id="96" depart="96.00" from="--34851#4" to="-35289"/>
    <trip id="97" depart="97.00" from="--35439#0" to="-35109"/>
    <trip id="98" depart="98.00" from="-34303#0" to="--34253#15"/>
    <trip id="99" depart="99.00" from="-35478#1" to="-35039"/>
    <trip id="100" depart="100.00" from="-35403#1" to="-35298"/>
    <trip id="101" depart="101.00" from="-35068#0" to="--34566"/>
    <trip id="102" depart="102.00" from="-34175#0" to="--34737#10"/>
    <trip id="103" depart="103.00" from="--35306#5" to="--34253#55"/>
    <trip id="104" depart="104.00" from="--35233#0" to="-35448#13"/>
    <trip id="105" depart="105.00" from="--34898#21" to="-34918#0"/>
    <trip id="106" depart="106.00" from="--35468#4" to="--35377"/>
    <trip id="107" depart="107.00" from="-35366#3" to="-35469#2"/>
    <trip id="108" depart="108.00" from="-34313#0" to="-34750#1"/>
    <trip id="109" depart="109.00" from="--34522#7" to="--34969#3"/>
    <trip id="110" depart="110.00" from="-35403#0" to="-34376"/>
    <trip id="111" depart="111.00" from="-34285#1" to="-34827#1"/>
    <trip id="112" depart="112.00" from="--34253#50" to="-34397#2"/>
    <trip id="113" depart="113.00" from="-34208" to="-35084#8"/>
    <trip id="114" depart="114.00" from="--34525#1" to="-35376"/>
    <trip id="115" depart="115.00" from="--34312#5" to="--34634#9"/>
    <trip id="116" depart="116.00" from="-34411#1" to="-34634#6"/>
    <trip id="117" depart="117.00" from="--34804#1" to="--34417#9"/>
    <trip id="118" depart="118.00" from="-35187#3" to="--34848#3"/>
    <trip id="119" depart="119.00" from="-34410#3" to="-34458"/>
    <trip id="120" depart="120.00" from="--35359#0" to="-34396"/>
    <trip id="121" depart="121.00" from="-34253#25" to="-35311#6"/>
    <trip id="122" depart="122.00" from="--34699" to="-34742"/>
    <trip id="123" depart="123.00" from="--34815#2" to="--35306#11"/>
    <trip id="124" depart="124.00" from="-34611#0" to="--34972#7"/>
    <trip id="125" depart="125.00" from="--35020#1" to="-34840#0"/>
    <trip id="126" depart="126.00" from="--34293#1" to="-34116"/>
    <trip id="127" depart="127.00" from="-35476#0" to="-35469#6"/>
    <trip id="128" depart="128.00" from="--34293#4" to="--34735#2"/>
    <trip id="129" depart="129.00" from="--34898#21" to="-35309#2"/>
    <trip id="130" depart="130.00" from="-35158" to="-35164#1"/>
    <trip id="131" depart="131.00" from="--35203#15" to="--34525#1"/>
    <trip id="132" depart="132.00" from="-35017#8" to="-34714#1"/>
    <trip id="133" depart="133.00" from="-34435#13" to="-35450#0"/>
    <trip id="134" depart="134.00" from="-34547#0" to="--34140"/>
    <trip id="135" depart="135.00" from="-34972#12" to="--34972#4"/>
    <trip id="136" depart="136.00" from="-34583" to="-35321"/>
    <trip id="137" depart="137.00" from="--34440#4" to="--34414#8"/>
    <trip id="138" depart="138.00" from="--34393#1" to="-34314#0"/>
    <trip id="139" depart="139.00" from="--34916#2" to="-34435#0"/>
    <trip id="140" depart="140.00" from="-34737#12" to="--34697"/>
    <trip id="141" depart="141.00" from="-34490" to="--34898#3"/>
    <trip id="142" depart="142.00" from="-34181#6" to="-35233#0"/>
    <trip id="143" depart="143.00" from="-35059" to="--34345#0"/>
    <trip id="144" depart="144.00" from="--35364#2" to="--34932#1"/>
    <trip id="145" depart="145.00" from="--34121#1" to="-34890"/>
    <trip id="146" depart="146.00" from="-34503#1" to="--34898#14"/>
    <trip id="147" depart="147.00" from="-34800#14" to="-34313#15"/>
    <trip id="148" depart="148.00" from="--35379#0" to="--34142#6"/>
    <trip id="149" depart="149.00" from="--34297#2" to="-35177"/>
    <trip id="150" depart="150.00" from="-35223#0" to="-34303#1"/>
    <trip id="151" depart="151.00" from="-35020#1" to="-34392#2"/>
    <trip id="152" depart="152.00" from="--34503#1" to="--34434#5"/>
    <trip id="153" depart="153.00" from="--34993#0" to="-35217"/>
    <trip id="154" depart="154.00" from="-34941#1" to="-35105#2"/>
    <trip id="155" depart="155.00" from="-35206" to="--34723#1"/>
    <trip id="156" depart="156.00" from="--34851#2" to="--34374#0"/>
    <trip id="157" depart="157.00" from="-34898#8" to="-35182#0"/>
    <trip id="158" depart="158.00" from="--35312#9" to="-34462#1"/>
    <trip id="159" depart="159.00" from="--34522#6" to="-35306#0"/>
    <trip id="160" depart="160.00" from="-35108" to="-35425#5"/>
    <trip id="161" depart="161.00" from="-34965#10" to="-35170#0"/>
    <trip id="162" depart="162.00" from="--34188#6" to="-34800#12"/>
    <trip id="163" depart="163.00" from="--35074#8" to="-35306#3"/>
    <trip id="164" depart="164.00" from="-34951#0" to="-35121"/>
    <trip id="165" depart="165.00" from="-34965#10" to="--34906#1"/>
    <trip id="166" depart="166.00" from="-34916#2" to="--34397#0"/>
    <trip id="167" depart="167.00" from="-35131" to="-35103#0"/>
    <trip id="168" depart="168.00" from="--34759#1" to="-34977#0"/>
    <trip id="169" depart="169.00" from="--35478#1" to="--34987#0"/>
    <trip id="170" depart="170.00" from="-34937" to="--34782#0"/>
    <trip id="171" depart="171.00" from="--34188#0" to="--34669#1"/>
    <trip id="172" depart="172.00" from="--35067" to="-35122#1"/>
    <trip id="173" depart="173.00" from="-35395#2" to="--34942#0"/>
    <trip id="174" depart="174.00" from="-34513#6" to="--35311#5"/>
    <trip id="175" depart="175.00" from="-35439#3" to="-34284#4"/>
    <trip id="176" depart="176.00" from="-35320#2" to="--34414#8"/>
    <trip id="177" depart="177.00" from="-35407#0" to="--34613#0"/>
    <trip id="178" depart="178.00" from="-35379#6" to="--34899#1"/>
    <trip id="179" depart="179.00" from="--34398#1" to="--35425#5"/>
    <trip id="180" depart="180.00" from="-34769" to="--35017#4"/>
    <trip id="181" depart="181.00" from="-34425#11" to="-34245#0"/>
    <trip id="182" depart="182.00" from="--35258#2" to="-34372#10"/>
    <trip id="183" depart="183.00" from="--34865" to="-34725"/>
    <trip id="184" depart="184.00" from="--34115" to="-35296#4"/>
    <trip id="185" depart="185.00" from="-34278" to="-34751#2"/>
    <trip id="186" depart="186.00" from="-34800#4" to="-34625#2"/>
    <trip id="187" depart="187.00" from="--35185#0" to="--34285#2"/>
    <trip id="188" depart="188.00" from="-34587#0" to="--35074#3"/>
    <trip id="189" depart="189.00" from="--35017#0" to="-35074#6"/>
    <trip id="190" depart="190.00" from="-34739#0" to="--34972#9"/>
    <trip id="191" depart="191.00" from="--35000#1" to="--35340#0"/>
    <trip id="192" depart="192.00" from="--35308#1" to="--34967"/>
    <trip id="193" depart="193.00" from="--34435#1" to="--35369"/>
    <trip id="194" depart="194.00" from="-35323#3" to="-34638#4"/>
    <trip id="195" depart="195.00" from="-35221#3" to="-34445#2"/>
    <trip id="196" depart="196.00" from="--34972#3" to="-34311#1"/>
    <trip id="197" depart="197.00" from="--34111#2" to="--34959#2"/>
    <trip id="198" depart="198.00" from="--35386#1" to="-34381"/>
    <trip id="199" depart="199.00" from="-34548#1" to="-34139#1"/>
    <trip id="200" depart="200.00" from="--35436#1" to="--34737#10"/>
    <trip id="201" depart="201.00" from="-34144#3" to="-35222"/>
    <trip id="202" depart="202.00" from="-34941#1" to="--34582#2"/>
    <trip id="203" depart="203.00" from="--34325#1" to="-34253#13"/>
    <trip id="204" depart="204.00" from="-34484#1" to="--35086"/>
    <trip id="205" depart="205.00" from="-34972#7" to="-34839#1"/>
    <trip id="206" depart="206.00" from="-34614" to="--34771#0"/>
    <trip id="207" depart="207.00" from="--34680" to="--34188#3"/>
    <trip id="208" depart="208.00" from="--34839#4" to="-34168#11"/>
    <trip id="209" depart="209.00" from="-35069#2" to="--34293#2"/>
    <trip id="210" depart="210.00" from="--35344#2" to="-34497#1"/>
    <trip id="211" depart="211.00" from="--34671#0" to="-34685#1"/>
    <trip id="212" depart="212.00" from="-34192" to="--34840#1"/>
    <trip id="213" depart="213.00" from="-34554" to="--34131"/>
    <trip id="214" depart="214.00" from="-34825#0" to="-34886#7"/>
    <trip id="215" depart="215.00" from="--34392#3" to="--35384"/>
    <trip id="216" depart="216.00" from="--34604#3" to="-35373#0"/>
    <trip id="217" depart="217.00" from="-34247#3" to="--34253#13"/>
    <trip id="218" depart="218.00" from="--34851#1" to="-35074#8"/>
    <trip id="219" depart="219.00" from="--35469#2" to="-34959#0"/>
    <trip id="220" depart="220.00" from="-34596#3" to="-35451#2"/>
    <trip id="221" depart="221.00" from="-34412#1" to="-35356#1"/>
    <trip id="222" depart="222.00" from="-35189#3" to="-34440#6"/>
    <trip id="223" depart="223.00" from="-34737#8" to="-34228#0"/>
    <trip id="224" depart="224.00" from="-35011#2" to="-34311#0"/>
    <trip id="225" depart="225.00" from="-35203#4" to="-34815#2"/>
    <trip id="226" depart="226.00" from="-34152" to="--34887#0"/>
    <trip id="227" depart="227.00" from="--34848#1" to="-34520#0"/>
    <trip id="228" depart="228.00" from="-34864" to="-34253#42"/>
    <trip id="229" depart="229.00" from="-34464" to="--34928#1"/>
    <trip id="230" depart="230.00" from="--34304#1" to="--34954#0"/>
    <trip id="231" depart="231.00" from="--34915#0" to="--35039"/>
    <trip id="232" depart="232.00" from="-34283" to="--34457#0"/>
    <trip id="233" depart="233.00" from="--34789#2" to="-34679#1"/>
    <trip id="234" depart="234.00" from="-34707#1" to="--34270#2"/>
    <trip id="235" depart="235.00" from="--35318#2" to="-34296#1"/>
    <trip id="236" depart="236.00" from="--35351#0" to="--34714#0"/>
    <trip id="237" depart="237.00" from="--35360#0" to="-35231#1"/>
    <trip id="238" depart="238.00" from="-34374#1" to="-34683#3"/>
    <trip id="239" depart="239.00" from="-35085" to="-34873#8"/>
    <trip id="240" depart="240.00" from="--35238#0" to="--34132#1"/>
    <trip id="241" depart="241.00" from="--35141#0" to="-34844#1"/>
    <trip id="242" depart="242.00" from="-35076#1" to="-35361#12"/>
    <trip id="243" depart="243.00" from="--35357#5" to="-34825#0"/>
    <trip id="244" depart="244.00" from="-34293#5" to="-34431#3"/>
    <trip id="245" depart="245.00" from="--34752#0" to="--34750#1"/>
    <trip id="246" depart="246.00" from="--35405#5" to="--34198#4"/>
    <trip id="247" depart="247.00" from="--35084#7" to="-34648"/>
    <trip id="248" depart="248.00" from="--35311#5" to="--34558"/>
    <trip id="249" depart="249.00" from="-34132#2" to="--34435#0"/>
    <trip id="250" depart="250.00" from="-34446#2" to="--34191#4"/>
    <trip id="251" depart="251.00" from="--35288" to="-34339#0"/>
    <trip id="252" depart="252.00" from="--34193" to="-34527"/>
    <trip id="253" depart="253.00" from="--34446#1" to="-34129"/>
    <trip id="254" depart="254.00" from="--34253#16" to="--35243#0"/>
    <trip id="255" depart="255.00" from="--34725" to="--35064"/>
    <trip id="256" depart="256.00" from="-34851#6" to="--35243#0"/>
    <trip id="257" depart="257.00" from="-34828#0" to="-35025"/>
    <trip id="258" depart="258.00" from="--34859#1" to="--34313#11"/>
    <trip id="259" depart="259.00" from="--34174#3" to="-34288#2"/>
    <trip id="260" depart="260.00" from="-35478#4" to="--35136#0"/>
    <trip id="261" depart="261.00" from="-34531" to="-34912#0"/>
    <trip id="262" depart="262.00" from="-34537#2" to="-34846#1"/>
    <trip id="263" depart="263.00" from="-35354" to="--34682"/>
    <trip id="264" depart="264.00" from="--34175#0" to="--34514"/>
    <trip id="265" depart="265.00" from="--34434#1" to="-34623#1"/>
    <trip id="266" depart="266.00" from="-34325#2" to="--34745"/>
    <trip id="267" depart="267.00" from="-34679#2" to="-34879"/>
    <trip id="268" depart="268.00" from="--34574" to="-34435#20"/>
    <trip id="269" depart="269.00" from="-34817" to="--34414#3"/>
    <trip id="270" depart="270.00" from="-34974" to="-35390#2"/>
    <trip id="271" depart="271.00" from="--34397#2" to="--34188#9"/>
    <trip id="272" depart="272.00" from="--35010#0" to="-34638#4"/>
    <trip id="273" depart="273.00" from="-35372" to="--35306#6"/>
    <trip id="274" depart="274.00" from="-34732#0" to="--34300#1"/>
    <trip id="275" depart="275.00" from="-34660#2" to="-34484#1"/>
    <trip id="276" depart="276.00" from="--34372#7" to="-34897"/>
    <trip id="277" depart="277.00" from="-35072" to="-34425#11"/>
    <trip id="278" depart="278.00" from="--34419#6" to="-35447#1"/>
    <trip id="279" depart="279.00" from="-34907" to="--35127#2"/>
    <trip id="280" depart="280.00" from="--35379#4" to="--35216#1"/>
    <trip id="281" depart="281.00" from="-34218#2" to="--35103#7"/>
    <trip id="282" depart="282.00" from="-35069#1" to="-34995"/>
    <trip id="283" depart="283.00" from="--34388#0" to="-35376"/>
    <trip id="284" depart="284.00" from="-34497#2" to="-35017#2"/>
    <trip id="285" depart="285.00" from="-34711#0" to="--35427#0"/>
    <trip id="286" depart="286.00" from="-34783#0" to="-35392#0"/>
    <trip id="287" depart="287.00" from="--34911#3" to="-34965#15"/>
    <trip id="288" depart="288.00" from="-34277#1" to="-34181#6"/>
    <trip id="289" depart="289.00" from="--35405#4" to="-34787"/>
    <trip id="290" depart="290.00" from="--34906#1" to="-35084#2"/>
    <trip id="291" depart="291.00" from="-35011#3" to="--34327#0"/>
    <trip id="292" depart="292.00" from="-35161#2" to="--34840#0"/>
    <trip id="293" depart="293.00" from="-34122#0" to="-34436#2"/>
    <trip id="294" depart="294.00" from="--35233#0" to="--34198#2"/>
    <trip id="295" depart="295.00" from="-35074#1" to="--34625#6"/>
    <trip id="296" depart="296.00" from="--34728#0" to="-34948#4"/>
    <trip id="297" depart="297.00" from="--35100#1" to="-35169#1"/>
    <trip id="298" depart="298.00" from="-34684" to="--34931#4"/>
    <trip id="299" depart="299.00" from="--34151" to="-35351#1"/>
    <trip id="300" depart="300.00" from="--34326" to="-34754"/>
    <trip id="301" depart="301.00" from="-34181#7" to="-34853#0"/>
    <trip id="302" depart="302.00" from="-34660#2" to="-34538#1"/>
    <trip id="303" depart="303.00" from="-34187#3" to="-34942#1"/>
    <trip id="304" depart="304.00" from="--34349#0" to="--34759#0"/>
    <trip id="305" depart="305.00" from="-34665" to="--34992#0"/>
    <trip id="306" depart="306.00" from="-34372#1" to="-34163#3"/>
    <trip id="307" depart="307.00" from="-34256#11" to="--35386#1"/>
    <trip id="308" depart="308.00" from="-34813#2" to="--35074#7"/>
    <trip id="309" depart="309.00" from="-34690#1" to="--34917"/>
    <trip id="310" depart="310.00" from="--34856" to="--34419#2"/>
    <trip id="311" depart="311.00" from="--34666#1" to="--34417#7"/>
    <trip id="312" depart="312.00" from="-34270#2" to="-34863#3"/>
    <trip id="313" depart="313.00" from="--34634#5" to="--34739#1"/>
    <trip id="314" depart="314.00" from="-34174#0" to="-34770#1"/>
    <trip id="315" depart="315.00" from="-35425#5" to="-34253#8"/>
    <trip id="316" depart="316.00" from="--34944#0" to="--34372#0"/>
    <trip id="317" depart="317.00" from="--34670#2" to="--34779#1"/>
    <trip id="318" depart="318.00" from="--34618#1" to="--34165"/>
    <trip id="319" depart="319.00" from="-34263" to="--34926"/>
    <trip id="320" depart="320.00" from="-35421#0" to="-34314#0"/>
    <trip id="321" depart="321.00" from="-34673#1" to="--34432#1"/>
    <trip id="322" depart="322.00" from="-35123#2" to="-34197#2"/>
    <trip id="323" depart="323.00" from="-35134" to="-34367#0"/>
    <trip id="324" depart="324.00" from="-34136#1" to="--35445#2"/>
    <trip id="325" depart="325.00" from="--34634#0" to="--34253#2"/>
    <trip id="326" depart="326.00" from="-35323#7" to="-34168#8"/>
    <trip id="327" depart="327.00" from="-34984#0" to="--35312#3"/>
    <trip id="328" depart="328.00" from="--34293#9" to="-34496"/>
    <trip id="329" depart="329.00" from="--34253#32" to="--34506#4"/>
    <trip id="330" depart="330.00" from="-34323#7" to="--34984#2"/>
    <trip id="331" depart="331.00" from="-35468#5" to="--34417#19"/>
    <trip id="332" depart="332.00" from="-34861#4" to="-34435#16"/>
    <trip id="333" depart="333.00" from="-34926" to="--34772"/>
    <trip id="334" depart="334.00" from="-34253#24" to="--35468#7"/>
    <trip id="335" depart="335.00" from="--35437#2" to="-35104"/>
    <trip id="336" depart="336.00" from="-35458" to="--34987#1"/>
    <trip id="337" depart="337.00" from="-34445#0" to="-34435#8"/>
    <trip id="338" depart="338.00" from="-34800#0" to="-35350"/>
    <trip id="339" depart="339.00" from="--34715#0" to="--34725"/>
    <trip id="340" depart="340.00" from="-34572#3" to="--34524#7"/>
    <trip id="341" depart="341.00" from="--34596#1" to="--34297#2"/>
    <trip id="342" depart="342.00" from="--34118#2" to="--35468#7"/>
    <trip id="343" depart="343.00" from="-34409#1" to="--34963#1"/>
    <trip id="344" depart="344.00" from="--34789#3" to="-34722#0"/>
    <trip id="345" depart="345.00" from="-34691#0" to="--35473#0"/>
    <trip id="346" depart="346.00" from="-34656" to="-35293"/>
    <trip id="347" depart="347.00" from="-34918#1" to="-34475#1"/>
    <trip id="348" depart="348.00" from="-34576#2" to="-35311#0"/>
    <trip id="349" depart="349.00" from="--35374#0" to="-34302#0"/>
    <trip id="350" depart="350.00" from="-34524#6" to="-35241#0"/>
    <trip id="351" depart="351.00" from="-34998#1" to="--34287#2"/>
    <trip id="352" depart="352.00" from="--34568" to="--34998#1"/>
    <trip id="353" depart="353.00" from="-34821#1" to="-34350"/>
    <trip id="354" depart="354.00" from="--34959#1" to="--34425#7"/>
    <trip id="355" depart="355.00" from="-34657#6" to="-34700"/>
    <trip id="356" depart="356.00" from="-35328" to="-34218#0"/>
    <trip id="357" depart="357.00" from="-34191#2" to="--34312#5"/>
    <trip id="358" depart="358.00" from="--34224#2" to="--35410"/>
    <trip id="359" depart="359.00" from="--35046#1" to="--34859#0"/>
    <trip id="360" depart="360.00" from="--34341" to="-35379#4"/>
    <trip id="361" depart="361.00" from="-35024#1" to="-34368"/>
    <trip id="362" depart="362.00" from="-35357#0" to="-35478#2"/>
    <trip id="363" depart="363.00" from="-34612#1" to="--34914#0"/>
    <trip id="364" depart="364.00" from="--34225#2" to="-34850#0"/>
    <trip id="365" depart="365.00" from="-34141#0" to="-34562#0"/>
    <trip id="366" depart="366.00" from="-35262#0" to="--34625#4"/>
    <trip id="367" depart="367.00" from="-34379" to="-34513#2"/>
    <trip id="368" depart="368.00" from="-34188#4" to="--34338#1"/>
    <trip id="369" depart="369.00" from="--35126" to="--35084#10"/>
    <trip id="370" depart="370.00" from="-34605" to="-35101#1"/>
    <trip id="371" depart="371.00" from="--35070" to="-34679#0"/>
    <trip id="372" depart="372.00" from="--34958" to="-35342#1"/>
    <trip id="373" depart="373.00" from="-34965#8" to="-34312#8"/>
    <trip id="374" depart="374.00" from="--35468#3" to="--35017#8"/>
    <trip id="375" depart="375.00" from="--35049#1" to="-35407#0"/>
    <trip id="376" depart="376.00" from="--35311#4" to="-34253#1"/>
    <trip id="377" depart="377.00" from="-35454#0" to="-34582#2"/>
    <trip id="378" depart="378.00" from="-34285#4" to="--35356#1"/>
    <trip id="379" depart="379.00" from="--34644" to="--35183#4"/>
    <trip id="380" depart="380.00" from="-34842#1" to="-34477#1"/>
    <trip id="381" depart="381.00" from="-34850#1" to="--34697"/>
    <trip id="382" depart="382.00" from="-34301" to="-35303#2"/>
    <trip id="383" depart="383.00" from="--35425#1" to="-34692"/>
    <trip id="384" depart="384.00" from="--34419#8" to="-35417#2"/>
    <trip id="385" depart="385.00" from="-34431#2" to="--34823#5"/>
    <trip id="386" depart="386.00" from="--34529#1" to="-34313#11"/>
    <trip id="387" depart="387.00" from="-34309#0" to="--34348#1"/>
    <trip id="388" depart="388.00" from="-35466#1" to="-35258#1"/>
    <trip id="389" depart="389.00" from="-34112#0" to="--34417#13"/>
    <trip id="390" depart="390.00" from="-35017#1" to="-34211#1"/>
    <trip id="391" depart="391.00" from="-34736#2" to="-34238#1"/>
    <trip id="392" depart="392.00" from="--34919#2" to="-35034"/>
    <trip id="393" depart="393.00" from="-35437#2" to="--34840#0"/>
    <trip id="394" depart="394.00" from="-34305#0" to="--35262#3"/>
    <trip id="395" depart="395.00" from="-35280#1" to="-34237#4"/>
    <trip id="396" depart="396.00" from="-35157#0" to="-35121"/>
    <trip id="397" depart="397.00" from="--34928#1" to="-34933#0"/>
    <trip id="398" depart="398.00" from="--35346#2" to="-35311#4"/>
    <trip id="399" depart="399.00" from="-34223#0" to="-34987#0"/>
    <trip id="400" depart="400.00" from="--34943#2" to="--34972#12"/>
    <trip id="401" depart="401.00" from="-34388#0" to="-35476#1"/>
    <trip id="402" depart="402.00" from="-34185#0" to="--34506#0"/>
    <trip id="403" depart="403.00" from="-34278" to="--35121"/>
    <trip id="404" depart="404.00" from="-34307" to="-34297#4"/>
    <trip id="405" depart="405.00" from="--35468#6" to="--35048#0"/>
    <trip id="406" depart="406.00" from="--34653#0" to="-34690#1"/>
    <trip id="407" depart="407.00" from="-34343" to="--34801"/>
    <trip id="408" depart="408.00" from="-34895" to="--34237#1"/>
    <trip id="409" depart="409.00" from="-34809" to="-34719#0"/>
    <trip id="410" depart="410.00" from="-34965#13" to="--35275#1"/>
    <trip id="411" depart="411.00" from="-34585#0" to="-34987#1"/>
    <trip id="412" depart="412.00" from="-35439#1" to="-34205#4"/>
    <trip id="413" depart="413.00" from="--34218#0" to="-34222#0"/>
    <trip id="414" depart="414.00" from="-34398#1" to="-35137#1"/>
    <trip id="415" depart="415.00" from="-35139" to="--35445#1"/>
    <trip id="416" depart="416.00" from="-34253#40" to="-34112#0"/>
    <trip id="417" depart="417.00" from="-34748#0" to="--35346#0"/>
    <trip id="418" depart="418.00" from="-34548#2" to="--34522#3"/>
    <trip id="419" depart="419.00" from="-34137" to="-35405#1"/>
    <trip id="420" depart="420.00" from="--35096" to="-34675"/>
    <trip id="421" depart="421.00" from="-34529#1" to="-35084#3"/>
    <trip id="422" depart="422.00" from="-35074#8" to="-35103#4"/>
    <trip id="423" depart="423.00" from="--35236" to="--35025"/>
    <trip id="424" depart="424.00" from="-34737#5" to="-34859#0"/>
    <trip id="425" depart="425.00" from="-35132" to="--34212"/>
    <trip id="426" depart="426.00" from="--34284#2" to="-34501#1"/>
    <trip id="427" depart="427.00" from="-35279#1" to="-35470#3"/>
    <trip id="428" depart="428.00" from="-34814" to="--35425#2"/>
    <trip id="429" depart="429.00" from="--34366" to="-34510#2"/>
    <trip id="430" depart="430.00" from="-35133" to="--35448#7"/>
    <trip id="431" depart="431.00" from="-34670#3" to="-35228#4"/>
    <trip id="432" depart="432.00" from="--34242" to="-34944#6"/>
    <trip id="433" depart="433.00" from="--34963#2" to="--35228#3"/>
    <trip id="434" depart="434.00" from="--34489#2" to="-34270#2"/>
    <trip id="435" depart="435.00" from="-34330" to="-34941#1"/>
    <trip id="436" depart="436.00" from="--34582#2" to="--34312#0"/>
    <trip id="437" depart="437.00" from="-35128#1" to="-34460#0"/>
    <trip id="438" depart="438.00" from="--34823#6" to="-35258#1"/>
    <trip id="439" depart="439.00" from="--34480" to="-34126"/>
    <trip id="440" depart="440.00" from="--34863#1" to="--34873#7"/>
    <trip id="441" depart="441.00" from="--34146#1" to="-34961#6"/>
    <trip id="442" depart="442.00" from="-35216#2" to="-34640"/>